<?xml version="1.0" encoding="UTF-8"?>

<!-- generated on 2025-11-06 23:42:33 by Eclipse SUMO netedit Version 1.24.0
-->

<routes xmlns:xsi="http://www.w3.org/2001/XMLSchema-instance" xsi:noNamespaceSchemaLocation="http://sumo.dlr.de/xsd/routes_file.xsd">
    <!-- VTypes -->
    <vType id="301" length="4.68" width="2.32" height="1.47" color="0,0,128"/>
    <vType id="302" length="4.68" width="2.32" height="1.47" color="132,132,132"/>
    <vType id="303" length="4.06" width="1.84" color="66,66,66"/>
    <vType id="304" length="4.07" width="1.84" color="228,58,58"/>
    <vType id="305" length="4.81" guiShape="passenger" width="2.16" color="245,215,50"/>
    <vType id="306" length="4.81" width="2.16" color="229,229,229"/>
    <vType id="EgoBike" length="1.80" vClass="bicycle" color="16,186,16"/>
    <vType id="EgoCar" length="4.81" width="2.16" color="69,56,56"/>
    <vType id="EgoScooter" length="1.09" vClass="scooter"/>
    <!-- Vehicles, persons and containers (sorted by depart) -->
    <flow id="f_1" type="301" begin="0.00" color="0,128,0" from="Node2_3_WB" to="Node1_2_WB" end="3600.00" vehsPerHour="500"/>
    <flow id="f_10" type="302" begin="0.00" from="E4" to="Node2_7_NB" via="Node2_3_WB" end="3600.00" vehsPerHour="500"/>
    <flow id="f_11" type="301" begin="0.00" color="41,181,224" from="E5" to="Node_2_5_SB" via="E7 Node2_3_WB" end="3600.00" vehsPerHour="500"/>
    <flow id="f_12" type="301" begin="0.00" color="41,181,224" from="Node2_5_NB" to="E4" via="Node1_2_WB" end="3600.00" vehsPerHour="500"/>
    <flow id="f_3" type="305" begin="0.00" from="Node2_7_SB" to="Node2_3_EB" end="3600.00" vehsPerHour="500"/>
    <trip id="f_0.0" type="EgoCar" depart="540.00" from="Node1_2_EB" to="Node2_3_EB"/>
</routes>
