<?xml version="1.0" encoding="UTF-8"?>

<!-- generated on 2025-11-05 00:54:43 by Eclipse SUMO netedit Version 1.24.0
-->

<additional xmlns:xsi="http://www.w3.org/2001/XMLSchema-instance" xsi:noNamespaceSchemaLocation="http://sumo.dlr.de/xsd/additional_file.xsd">
    <!-- Detectors -->
    <laneAreaDetector id="Node1_2_EB_0" lane="Node1_2_EB_0" pos="50.52" length="10.00" period="300.00" file="e2_0.xml"/>
    <laneAreaDetector id="Node1_2_EB_1" lane="Node1_2_EB_1" pos="50.15" length="10.00" period="300.00" file="e2_1.xml"/>
    <laneAreaDetector id="Node1_2_EB_2" lane="Node1_2_EB_2" pos="49.88" length="10.00" period="300.00" file="e2_2.xml"/>
    <laneAreaDetector id="Node2_3_WB_0" lane="Node2_3_WB_0" pos="45.44" length="10.00" period="300.00" file="e2_7.xml"/>
    <laneAreaDetector id="Node2_3_WB_1" lane="Node2_3_WB_1" pos="44.83" length="10.00" period="300.00" file="e2_6.xml"/>
    <laneAreaDetector id="Node2_3_WB_2" lane="Node2_3_WB_2" pos="44.76" length="10.00" period="300.00" file="e2_8.xml"/>
    <laneAreaDetector id="Node2_5_NB_0" lane="Node2_5_NB_0" pos="22.74" length="10.00" period="300.00" file="e2_9.xml"/>
    <laneAreaDetector id="Node2_5_NB_1" lane="Node2_5_NB_1" pos="22.97" length="10.00" period="300.00" file="e2_10.xml"/>
    <laneAreaDetector id="Node2_5_NB_2" lane="Node2_5_NB_2" pos="22.99" length="10.00" period="300.00" file="e2_11.xml"/>
    <laneAreaDetector id="Node2_7_SB_0" lane="Node2_7_SB_0" pos="40.19" length="10.00" period="300.00" file="e2_0.xml"/>
    <laneAreaDetector id="Node2_7_SB_1" lane="Node2_7_SB_1" pos="40.22" length="10.00" period="300.00" file="e2_1.xml"/>
    <laneAreaDetector id="Node2_7_SB_2" lane="Node2_7_SB_2" pos="40.52" length="10.00" period="300.00" file="e2_2.xml"/>
    <!-- Shapes -->
    <poly id="po_0" type="Terrain" color="red" fill="0" layer="0.00" shape="-138.340000,85.290000 -139.340000,-141.880000 -139.800000,-188.670000 192.820000,-187.110000 183.220000,87.640000 -138.670000,84.620000"/>
    <poly id="po_1" type="Roadside" color="154,154,154" fill="1" layer="0.00" shape="-3.990000,17.830000 -4.760000,15.660000 -6.440000,14.430000 -77.750000,14.340000 -85.330000,12.750000 -90.890000,9.400000 -94.590000,3.320000 -95.820000,-4.960000 -96.560000,-54.280000 -96.080000,-63.080000 -93.040000,-69.170000 -88.340000,-73.320000 -81.150000,-75.810000 89.000000,-73.870000 96.750000,-72.770000 103.110000,-69.170000 107.260000,-62.810000 108.920000,-57.270000 106.700000,-1.660000 104.770000,5.810000 99.230000,11.620000 89.830000,15.490000 19.830000,14.930000 17.350000,16.730000 16.760000,79.640000 -4.600000,79.440000 -3.250000,-10.530000 -10.830000,-7.840000 -74.230000,-7.470000 -74.510000,-53.950000 -5.620000,-52.570000 -2.300000,-51.460000 -2.850000,-48.700000 -3.400000,-10.520000 -2.170000,-7.690000 -7.830000,-7.470000 83.190000,-6.920000 85.130000,-9.960000 85.130000,-16.330000 86.510000,-51.740000 21.490000,-52.570000 19.280000,-50.360000 18.450000,-48.420000 18.440000,-10.440000 18.690000,-7.320000"/>
    <poly id="po_2" type="Residential" color="152,152,152" fill="1" layer="0.00" shape="-70.640000,-12.820000 -6.950000,-12.030000 -6.860000,-50.590000 -70.520000,-51.470000 -70.840000,-13.320000"/>
    <poly id="po_3" type="Residential" color="152,152,152" fill="1" layer="0.00" shape="-88.410000,44.350000 -88.410000,17.180000 -7.600000,18.010000 -7.080000,44.700000 -87.990000,44.590000"/>
    <poly id="po_4" type="Residential" color="152,152,152" fill="1" layer="0.00" shape="21.970000,-10.220000 22.940000,-49.210000 83.490000,-48.380000 81.840000,-10.200000 21.900000,-10.440000"/>
    <poly id="po_5" type="Wood" color="208,64,64" fill="1" layer="0.00" shape="21.960000,43.890000 22.210000,18.830000 91.800000,19.320000 91.130000,44.740000 22.350000,44.050000"/>
    <poly id="po_6" type="Residential" color="144,144,144" fill="1" layer="0.00" shape="109.890000,-1.900000 111.530000,-53.550000 110.980000,-61.470000 107.700000,-67.210000 103.870000,-71.860000 97.320000,-74.860000 79.280000,-76.770000 -81.660000,-77.870000 -87.370000,-77.880000 -87.960000,-155.030000 -5.940000,-154.850000 132.000000,-152.820000 131.750000,-90.440000 137.210000,-78.690000 141.040000,-62.020000 138.850000,0.830000 109.340000,-2.450000"/>
</additional>
